******
** ngspice-44.2 : Circuit level simulation program
** Compiled with KLU Direct Linear Solver
** The U. C. Berkeley CAD Group
** Copyright 1985-1994, Regents of the University of California.
** Copyright 2001-2024, The ngspice team.
** Please get your ngspice manual from https://ngspice.sourceforge.io/docs.html
** Please file your bug-reports at http://ngspice.sourceforge.net/bugrep.html
** Creation Date: Tue Jul 29 08:21:22 UTC 2025
******

Note: Compatibility modes selected: hs a


Circuit: ** sch_path: /foss/designs/modulo3/lab03/xschem/tb_postlayout.sch

option SCALE: Scale is set to 1e-06 for instance and model parameters
option SCALE: Scale is set to 1e-06 for instance and model parameters
option SCALE: Scale is set to 1e-06 for instance and model parameters
option SCALE: Scale is set to 1e-06 for instance and model parameters
Doing analysis at TEMP = 27.000000 and TNOM = 27.000000

Using KLU as Direct Linear Solver
 Reference value :  3.49950e-08
No. of Data Rows : 4053
tplh_pre            =  1.236186e-10 targ=  1.736186e-10 trig=  5.000000e-11
tphl_pre            =  1.375402e-10 targ=  5.187540e-09 trig=  5.050000e-09
tplh_post           =  1.358880e-10 targ=  1.858880e-10 trig=  5.000000e-11
tphl_post           =  1.512560e-10 targ=  5.201256e-09 trig=  5.050000e-09
binary raw file "tb_postlayout.raw"
ngspice 1 -> 
